Version 4
SHEET 1 1200 680
SYMBOL svg/svg_current 704 272 R0
SYMATTR InstName I1
SYMBOL svg/svg_diode 656 176 R0
SYMATTR InstName D1
SYMBOL svg/svg_meas_I 752 80 R0
SYMATTR InstName X2
SYMBOL svg/svg_meas_V 816 64 R0
SYMATTR InstName X3
SYMBOL svg/svg_nmos 912 256 R0
SYMATTR InstName M1
SYMBOL svg/svg_nmos4 1040 256 R0
SYMATTR InstName M2
SYMBOL svg/svg_opamp 784 416 R0
SYMATTR InstName U7
SYMBOL svg/svg_pmos 912 368 R0
SYMATTR InstName M3
SYMBOL svg/svg_pmos4 1088 368 R0
SYMATTR InstName M4
SYMBOL svg/svg_res 864 64 R0
SYMATTR InstName R1
SYMATTR Value 10k
SYMBOL svg/svg_vccs 432 448 R0
SYMATTR InstName U8
SYMBOL svg/svg_voltage 704 352 R0
SYMATTR InstName V2
SYMBOL svg/svg_cap 864 160 R0
SYMATTR InstName C1
SYMATTR Value 3pf
SYMBOL svg/svg_ind 640 96 R0
SYMATTR InstName L1
SYMATTR Value 10H
SYMBOL svg/svg_meas_imped 752 192 R0
SYMATTR InstName X4
SYMBOL svg/svg_npn 480 224 R0
SYMATTR InstName Q1
SYMBOL svg/svg_pnp 480 320 R0
SYMATTR InstName Q2
SYMBOL svg/svg_block_arrow 432 208 R0
SYMATTR InstName U3
SYMBOL svg/svg_block_arrow2 480 208 R0
SYMATTR InstName U4
SYMBOL svg/svg_block_box 288 288 R0
SYMATTR InstName U5
SYMBOL svg/svg_block_dac 336 64 R0
SYMATTR InstName U6
SYMBOL svg/svg_block_delay 432 64 R0
SYMATTR InstName U9
SYMBOL svg/svg_block_quant 496 64 R0
SYMATTR InstName U10
SYMBOL svg/svg_block_sum 544 144 R0
SYMATTR InstName U11
SYMBOL svg/svg_vcvs 608 448 R0
SYMATTR InstName U12
SYMBOL svg/svg_block_adc 272 416 R0
SYMATTR InstName U1
SYMBOL svg/svg_block_amp 240 176 R0
SYMATTR InstName U13
SYMBOL svg/svg_meas_V2 1056 448 R0
SYMATTR InstName X5
SYMBOL svg/svg_voltage2 816 352 R0
SYMATTR InstName V1
SYMBOL svg/svg_meas_plus 976 80 R0
SYMATTR InstName X7
SYMBOL svg/svg_meas_minus 976 128 R0
SYMATTR InstName X8
SYMBOL svg\\svg_block_adc -208 -416 R0
SYMATTR InstName U2
SYMBOL svg\\svg_block_dac -112 -416 R0
SYMATTR InstName U14
SYMBOL svg\\svg_block_amp -224 -336 R0
SYMATTR InstName U15
SYMBOL svg\\svg_block_arrow -112 -336 R0
SYMATTR InstName U16
SYMBOL svg\\svg_block_arrow2 -80 -336 R0
SYMATTR InstName U17
SYMBOL svg\\svg_block_box -80 -336 R0
SYMATTR InstName U18
SYMBOL svg\\svg_block_delay -208 -256 R0
SYMATTR InstName U19
SYMBOL svg\\svg_block_quant -144 -256 R0
SYMATTR InstName U20
SYMBOL svg\\svg_block_sum -32 -240 R0
SYMATTR InstName U21
SYMBOL svg\\svg_cap -224 -144 R0
SYMATTR InstName C2
SYMBOL svg\\svg_res -128 -144 R0
SYMATTR InstName R2
SYMBOL svg\\svg_ind -64 -144 R0
SYMATTR InstName L2
SYMBOL svg\\svg_diode 16 -144 R0
SYMATTR InstName D2
SYMBOL svg\\svg_nmos 112 -432 R0
SYMATTR InstName M5
SYMBOL svg\\svg_nmos4 240 -432 R0
SYMATTR InstName M6
SYMBOL svg\\svg_pmos 368 -432 R0
SYMATTR InstName M7
SYMBOL svg\\svg_pmos4 496 -432 R0
SYMATTR InstName M8
SYMBOL svg\\svg_npn 112 -336 R0
SYMATTR InstName Q3
SYMBOL svg\\svg_pnp 240 -336 R0
SYMATTR InstName Q4
SYMBOL svg\\svg_current -208 -48 R0
SYMATTR InstName I2
SYMBOL svg\\svg_voltage -96 -48 R0
SYMATTR InstName V3
SYMBOL svg\\svg_vccs -16 -48 R0
SYMATTR InstName U22
SYMBOL svg\\svg_vcvs 128 -48 R0
SYMATTR InstName U23
SYMBOL svg\\svg_ss_nmos 368 -336 R0
SYMATTR InstName X1
SYMBOL svg\\svg_ss_pmos 496 -336 R0
SYMATTR InstName X6
SYMBOL svg\\svg_opamp 160 -256 R0
SYMATTR InstName U24
SYMBOL svg\\svg_meas_I 208 -224 R0
SYMATTR InstName X9
SYMBOL svg\\svg_meas_imped 272 -208 R0
SYMATTR InstName X10
SYMBOL svg\\svg_meas_V 336 -224 R0
SYMATTR InstName X11
SYMBOL svg\\svg_meas_V2 448 -192 R0
SYMATTR InstName X12
SYMBOL svg\\svg_meas_V3 496 -208 R0
SYMATTR InstName X13
SYMBOL svg\\svg_meas_Vminus 128 -112 R0
SYMATTR InstName X14
SYMBOL svg\\svg_meas_Vplus 192 -112 R0
SYMATTR InstName X15
