Version 4
SHEET 1 1120 680
WIRE -1008 192 -1040 192
WIRE -912 192 -944 192
FLAG -912 192 .
IOPIN -912 192 In
FLAG -1040 192 .
IOPIN -1040 192 In
SYMBOL svg\\svg_battery -944 176 R90
WINDOW 0 0 32 VBottom 2
WINDOW 3 32 32 VTop 2
SYMATTR InstName .
SYMATTR Value ""
