Version 4
SHEET 1 1072 704
WIRE 288 48 160 48
WIRE 384 48 288 48
WIRE -160 64 -272 64
WIRE -64 64 -160 64
WIRE 816 64 704 64
WIRE 48 112 48 0
WIRE 208 112 48 112
WIRE -160 176 -160 64
WIRE 400 176 272 176
WIRE 688 176 560 176
WIRE 48 256 48 112
WIRE 272 320 272 176
WIRE 688 320 688 176
WIRE -160 336 -160 208
WIRE -160 336 -304 336
WIRE -16 336 -160 336
WIRE 816 336 816 288
WIRE 816 400 816 336
WIRE 880 400 816 400
WIRE 944 400 880 400
WIRE 112 464 112 352
WIRE 432 464 432 320
WIRE 544 464 544 320
WIRE 816 512 816 400
WIRE -160 544 -160 432
WIRE -160 544 -320 544
WIRE -16 544 -160 544
WIRE 112 560 112 464
WIRE 272 624 272 512
WIRE 416 624 272 624
WIRE 688 624 688 512
WIRE 688 624 608 624
WIRE -160 688 -160 544
FLAG -160 544 test24
FLAG 48 112 test20
FLAG -160 64 test22
FLAG -160 336 test23
FLAG 112 352 test17
FLAG 112 560 test19
FLAG 112 464 test18
FLAG 384 48 test14
FLAG 288 48 test15
FLAG 160 48 test16
FLAG 272 176 test05
FLAG 688 176 test08
FLAG 688 624 test11
FLAG 272 624 test02
FLAG 272 320 test04
FLAG 400 176 test06
FLAG 560 176 test07
FLAG 688 320 test09
FLAG 688 512 test10
FLAG 608 624 test12
FLAG 272 512 test03
FLAG 528 48 test13
FLAG 416 624 test01
FLAG 704 64 Vin
IOPIN 704 64 In
FLAG 816 64 Vin
IOPIN 816 64 In
FLAG 544 320 Vin
IOPIN 544 320 In
FLAG 544 464 Vin
IOPIN 544 464 In
FLAG 432 320 Vdd
IOPIN 432 320 BiDir
FLAG 432 464 Vss
IOPIN 432 464 BiDir
FLAG 816 512 0
FLAG 816 288 0
FLAG 944 400 0
FLAG 880 400 0
FLAG 816 336 0
