Version 4
SHEET 1 1464 760
SYMBOL Digital\\and -560 -464 R0
SYMATTR InstName A1
SYMBOL Digital\\buf -464 -464 R0
SYMATTR InstName A2
SYMBOL Digital\\buf1 -352 -464 R0
SYMATTR InstName A3
SYMBOL Digital\\counter -144 -432 R0
SYMATTR InstName A4
SYMBOL Digital\\dflop 144 -464 R0
SYMATTR InstName A5
SYMBOL Digital\\diffschmitt 320 -448 R0
SYMATTR InstName A6
SYMBOL Digital\\diffschmtbuf 464 -448 R0
SYMATTR InstName A7
SYMBOL Digital\\diffschmtinv 576 -448 R0
SYMATTR InstName A8
SYMBOL Digital\\inv 688 -448 R0
SYMATTR InstName A9
SYMBOL Digital\\or 832 -464 R0
SYMATTR InstName A10
SYMBOL Digital\\phidet 960 -400 R0
SYMATTR InstName A11
SYMBOL Digital\\schmitt -592 -272 R0
SYMATTR InstName A12
SYMBOL Digital\\schmtbuf -448 -288 R0
SYMATTR InstName A13
SYMBOL Digital\\schmtinv -320 -288 R0
SYMATTR InstName A14
SYMBOL Digital\\srflop -160 -288 R0
SYMATTR InstName A15
SYMBOL Digital\\xor 0 -272 R0
SYMATTR InstName A16
SYMBOL Misc\\battery 144 -272 R0
SYMATTR InstName V1
SYMBOL Misc\\cell 272 -256 R0
SYMATTR InstName V2
SYMBOL Misc\\DIAC 352 -240 R0
SYMATTR InstName U1
SYMBOL Misc\\Epoly -608 -64 R0
SYMATTR InstName E1
SYMBOL Misc\\EuropeanCap -464 -32 R0
SYMATTR InstName C1
SYMBOL Misc\\EuropeanPolcap -368 -32 R0
SYMATTR InstName C2
SYMBOL Misc\\EuropeanResistor -240 -112 R0
SYMATTR InstName R1
SYMBOL Misc\\fixedind -144 -96 R0
SYMATTR InstName L1
SYMBOL Misc\\Gpoly -32 -112 R0
SYMATTR InstName G1
SYMBOL Misc\\jumper 128 -112 R0
SYMATTR InstName X1
SYMBOL Misc\\neonbulb 320 -64 R0
SYMATTR InstName U8
SYMBOL Misc\\NIGBT -288 48 R0
SYMATTR InstName Z1
SYMBOL Misc\\pentode -96 96 R0
SYMATTR InstName U9
SYMBOL Misc\\PIGBT 16 48 R0
SYMATTR InstName Z2
SYMBOL Misc\\SCR 208 80 R0
SYMATTR InstName U10
SYMBOL Misc\\signal 368 48 R0
SYMATTR InstName V3
SYMBOL Misc\\tetrode 592 96 R0
SYMATTR InstName U11
SYMBOL Misc\\TRIAC 752 -128 R0
SYMATTR InstName U13
SYMBOL Misc\\triode 752 80 R0
SYMATTR InstName U14
SYMBOL Misc\\urc 912 -144 R0
SYMATTR InstName U15
SYMBOL Misc\\urc2 912 0 R0
SYMATTR InstName U16
SYMBOL Misc\\xtal 1024 -144 R0
SYMATTR InstName C3
SYMBOL Misc\\xvaristor 1040 -32 R0
SYMATTR InstName U17
SYMBOL Opamps\\UniversalOpamp2 -576 288 R0
SYMATTR InstName U18
SYMBOL Opamps\\opamp -416 224 R0
SYMATTR InstName U19
SYMBOL Opamps\\opamp2 -272 224 R0
SYMATTR InstName U20
SYMBOL SpecialFunctions\\varistor -112 224 R0
SYMATTR InstName A17
SYMBOL SpecialFunctions\\sample 48 272 R0
SYMATTR InstName A18
