Version 4
SHEET 1 1192 680
SYMBOL bi -400 -176 R0
SYMATTR InstName B1
SYMBOL bi2 -256 -176 R0
SYMATTR InstName B2
SYMBOL bv -128 -192 R0
SYMATTR InstName B3
SYMBOL cap -16 -176 R0
SYMATTR InstName C1
SYMBOL csw 96 -176 R0
SYMATTR InstName W1
SYMBOL current 224 -176 R0
SYMATTR InstName I1
SYMBOL diode 304 -176 R0
SYMATTR InstName D1
SYMBOL e 432 -192 R0
SYMATTR InstName E1
SYMBOL e2 544 -192 R0
SYMATTR InstName E2
SYMBOL f 656 -176 R0
SYMATTR InstName F1
SYMBOL FerriteBead 752 -144 R0
SYMATTR InstName L1
SYMBOL FerriteBead2 832 -144 R0
SYMATTR InstName L2
SYMBOL g 944 -192 R0
SYMATTR InstName G1
SYMBOL g2 1088 -192 R0
SYMATTR InstName G2
SYMBOL h -400 -16 R0
SYMATTR InstName H1
SYMBOL ind -320 -32 R0
SYMATTR InstName L3
SYMBOL ind2 -240 -32 R0
SYMATTR InstName L4
SYMBOL ISO16750-2 -128 -16 R0
SYMATTR InstName U1
SYMBOL ISO7637-2 16 -16 R0
SYMATTR InstName U2
SYMBOL LED 208 -16 R0
SYMATTR InstName D2
SYMBOL load 304 -16 R0
SYMATTR InstName I2
SYMBOL load2 416 -16 R0
SYMATTR InstName I3
SYMBOL lpnp 480 -32 R0
SYMATTR InstName Q1
SYMBOL ltline 672 16 R0
SYMATTR InstName O1
SYMBOL mesfet 752 -32 R0
SYMATTR InstName Z1
SYMBOL njf 880 -32 R0
SYMATTR InstName J1
SYMBOL nmos 992 -32 R0
SYMATTR InstName M1
SYMBOL nmos4 -432 144 R0
SYMATTR InstName M2
SYMBOL npn -272 144 R0
SYMATTR InstName Q2
SYMBOL npn2 -144 144 R0
SYMATTR InstName Q3
SYMBOL npn3 -32 144 R0
SYMATTR InstName Q4
SYMBOL npn4 96 144 R0
SYMATTR InstName Q5
SYMBOL pjf 240 128 R0
SYMATTR InstName J2
SYMBOL pmos 352 128 R0
SYMATTR InstName M3
SYMBOL pmos4 496 128 R0
SYMATTR InstName M4
SYMBOL pnp 640 128 R0
SYMATTR InstName Q6
SYMBOL pnp2 784 128 R0
SYMATTR InstName Q7
SYMBOL pnp4 944 128 R0
SYMATTR InstName Q8
SYMBOL polcap -416 336 R0
SYMATTR InstName C2
SYMBOL res -272 320 R0
SYMATTR InstName R1
SYMBOL res2 -160 352 R0
SYMATTR InstName R2
SYMBOL schottky -48 352 R0
SYMATTR InstName D3
SYMBOL SOAtherm-HeatSink 144 400 R0
SYMATTR InstName U3
SYMBOL SOAtherm-PCB 448 352 R0
SYMATTR InstName U4
SYMBOL sw -400 480 R0
SYMATTR InstName S1
SYMBOL tline -240 544 R0
SYMATTR InstName T1
SYMBOL TVSdiode -112 512 R0
SYMATTR InstName D4
SYMBOL varactor 0 512 R0
SYMATTR InstName D5
SYMBOL voltage 128 496 R0
SYMATTR InstName V1
SYMBOL zener 224 512 R0
SYMATTR InstName D6
