Version 4
SHEET 1 1192 680
SYMBOL svg\\svg_block_adc -880 -560 R0
SYMATTR InstName U1
SYMBOL svg\\svg_block_amp -800 -560 R0
SYMATTR InstName U2
SYMBOL svg\\svg_block_arrow -656 -528 R0
SYMATTR InstName U3
SYMBOL svg\\svg_block_arrow2 -624 -528 R0
SYMATTR InstName U4
SYMBOL svg\\svg_block_box -624 -560 R0
SYMATTR InstName U5
SYMBOL svg\\svg_block_dac -496 -560 R0
SYMATTR InstName U6
SYMBOL svg\\svg_block_delay -400 -560 R0
SYMATTR InstName U7
SYMBOL svg\\svg_block_quant -336 -560 R0
SYMATTR InstName U8
SYMBOL svg\\svg_block_sum -224 -544 R0
SYMATTR InstName U9
SYMBOL svg\\svg_cap -896 -464 R0
SYMATTR InstName C1
SYMBOL svg\\svg_current -768 -464 R0
SYMATTR InstName I1
SYMBOL svg\\svg_diode -720 -464 R0
SYMATTR InstName D1
SYMBOL svg\\svg_ind -656 -464 R0
SYMATTR InstName L1
SYMBOL svg\\svg_meas_I -592 -464 R0
SYMATTR InstName X1
SYMBOL svg\\svg_meas_imped -544 -448 R0
SYMATTR InstName X2
SYMBOL svg\\svg_meas_minus -496 -448 R0
SYMATTR InstName X3
SYMBOL svg\\svg_meas_plus -496 -416 R0
SYMATTR InstName X4
SYMBOL svg\\svg_meas_V -464 -464 R0
SYMATTR InstName X5
SYMBOL svg\\svg_meas_V2 -400 -432 R0
SYMATTR InstName X6
SYMBOL svg\\svg_meas_V3 -384 -464 R0
SYMATTR InstName X7
SYMBOL svg\\svg_meas_Vminus -384 -400 R0
SYMATTR InstName X8
SYMBOL svg\\svg_meas_Vplus -336 -400 R0
SYMATTR InstName X9
SYMBOL svg\\svg_nmos -272 -480 R0
SYMATTR InstName M1
SYMBOL svg\\svg_nmos4 -912 -368 R0
SYMATTR InstName M2
SYMBOL svg\\svg_npn -800 -368 R0
SYMATTR InstName Q1
SYMBOL svg\\svg_npn1 -688 -368 R0
SYMATTR InstName Q2
SYMBOL svg\\svg_opamp -528 -384 R0
SYMATTR InstName U10
SYMBOL svg\\svg_pmos -464 -368 R0
SYMATTR InstName M3
SYMBOL svg\\svg_pmos4 -336 -368 R0
SYMATTR InstName M4
SYMBOL svg\\svg_pnp -224 -368 R0
SYMATTR InstName Q3
SYMBOL svg\\svg_pnp1 -912 -256 R0
SYMATTR InstName Q4
SYMBOL svg\\svg_res -784 -240 R0
SYMATTR InstName R1
SYMBOL svg\\svg_ss_nmos -688 -256 R0
SYMATTR InstName X10
SYMBOL svg\\svg_ss_pmos -560 -256 R0
SYMATTR InstName X11
SYMBOL svg\\svg_vccs -416 -240 R0
SYMATTR InstName U11
SYMBOL svg\\svg_vcvs -288 -240 R0
SYMATTR InstName U12
SYMBOL svg\\svg_voltage -144 -240 R0
SYMATTR InstName V1
SYMBOL svg\\svg_voltage2 -32 -240 R0
SYMATTR InstName V2
